/*--------------------------------*- C++ -*----------------------------------*\
  =========                 |
  \\      /  F ield         | OpenFOAM: The Open Source CFD Toolbox
   \\    /   O peration     | Website:  https://openfoam.org
    \\  /    A nd           | Version:  9
     \\/     M anipulation  |
\*---------------------------------------------------------------------------*/
FoamFile
{
    format      binary;
    class       polyBoundaryMesh;
    location    "constant/polyMesh";
    object      boundary;
}
// * * * * * * * * * * * * * * * * * * * * * * * * * * * * * * * * * * * * * //

5
(
    base
    {
        type            patch;
        nFaces          134;
        startFace       44700;
    }
    outlet
    {
        type            patch;
        nFaces          150;
        startFace       44834;
    }
    sides
    {
        type            patch;
        nFaces          300;
        startFace       44984;
    }
    frontAndBack
    {
        type            empty;
        inGroups        List<word> 1(empty);
        nFaces          45000;
        startFace       45284;
    }
    inlet
    {
        type            patch;
        nFaces          16;
        startFace       90284;
    }
)

// ************************************************************************* //
